sol/case300.m
function mpc = case300
%CASE300

%% MATPOWER Case Format : Version 2
mpc.version = '2';

%%-----  Power Flow Data  -----%%
%% system MVA base
mpc.baseMVA = 100;

%% bus data
%	bus_i	type	Pd	Qd	Gs	Bs	area	Vm	Va	baseKV	zone	Vmax	Vmin	lam_P	lam_Q	mu_Vmax	mu_Vmin
mpc.bus = [
	1	1	90	49	0	0	1	1.04297572	14.2439174	115	1	1.06	0.94	38.6674	0.1385	0.0000	0.0000;
	2	1	56	15	0	0	1	1.04888646	15.9753742	115	1	1.06	0.94	38.3253	0.1880	0.0000	0.0000;
	3	1	20	0	0	0	1	1.01286799	15.3027553	230	1	1.06	0.94	38.9289	0.2704	0.0000	0.0000;
	4	1	0	0	0	0	1	1.04724253	13.8454846	345	1	1.06	0.94	39.0475	0.3039	0.0000	0.0000;
	5	1	353	130	0	0	1	1.03501206	13.0583183	115	1	1.06	0.94	38.9234	0.2218	0.0000	0.0000;
	6	1	120	41	0	0	1	1.04539448	15.3027995	115	1	1.06	0.94	38.5246	0.2107	0.0000	0.0000;
	7	1	0	0	0	0	1	1.00882138	14.7820427	230	1	1.06	0.94	38.9210	0.2611	0.0000	0.0000;
	8	2	63	14	0	0	1	1.03212478	11.2945858	115	1	1.06	0.94	39.2179	0.4409	0.0000	0.0000;
	9	1	96	43	0	0	1	1.02413677	11.2965015	115	1	1.06	0.94	39.2986	0.3823	0.0000	0.0000;
	10	2	153	33	0	0	1	1.0397375	9.95038226	230	1	1.06	0.94	39.1928	0.2519	0.0000	0.0000;
	11	1	83	21	0	0	1	1.03055596	10.924592	115	1	1.06	0.94	39.2419	0.3351	0.0000	0.0000;
	12	1	0	0	0	0	1	1.012479	13.7443748	230	1	1.06	0.94	39.1291	0.1974	0.0000	0.0000;
	13	1	58	10	0	0	1	1.01971783	8.09379609	115	1	1.06	0.94	39.9855	0.3853	0.0000	0.0000;
	14	1	160	60	0	0	1	1.01275352	5.46064242	115	1	1.06	0.94	40.9463	0.6991	0.0000	0.0000;
	15	1	126.7	23	0	0	1	1.04058587	2.9275363	115	1	1.06	0.94	41.0156	0.1791	0.0000	0.0000;
	16	1	0	0	0	0	1	1.04729408	8.2887597	345	1	1.06	0.94	40.3000	0.2108	0.0000	0.0000;
	17	1	561	220	0	0	1	1.05999939	0.102483503	115	1	1.06	0.94	43.5148	0.0000	250.6083	0.0000;
	19	1	0	0	0	0	1	0.999659895	10.0522809	230	1	1.06	0.94	39.9075	0.3875	0.0000	0.0000;
	20	2	605	120	0	0	1	1.01975658	6.3007352	115	1	1.06	0.94	40.2225	0.3488	0.0000	0.0000;
	21	1	77	1	0	0	1	0.991355441	10.2564501	230	1	1.06	0.94	39.9011	0.3567	0.0000	0.0000;
	22	1	81	23	0	0	1	1.01352871	6.60320291	115	1	1.06	0.94	40.4270	0.3802	0.0000	0.0000;
	23	1	21	7	0	0	1	1.0599999	11.8176289	115	1	1.06	0.94	37.9404	-0.5451	1650.1811	0.0000;
	24	1	0	0	0	0	1	1.01499941	14.0022681	230	1	1.06	0.94	38.7485	0.0000	0.0000	0.0000;
	25	1	45	12	0	0	1	1.03486728	9.43070942	115	1	1.06	0.94	39.4548	-0.2436	0.0000	0.0000;
	26	1	28	9	0	0	1	1.01249761	6.45154657	115	1	1.06	0.94	41.2977	-0.1196	0.0000	0.0000;
	27	1	69	13	0	0	1	0.991517614	3.60357863	115	1	1.06	0.94	42.4799	0.2627	0.0000	0.0000;
	33	1	55	6	0	0	1	1.04239609	-0.467639548	115	1	1.06	0.94	41.2134	0.0788	0.0000	0.0000;
	34	1	0	0	0	0	1	1.05438556	4.52290228	345	1	1.06	0.94	41.0137	0.0536	0.0000	0.0000;
	35	1	0	0	0	0	1	1.01344807	-4.20666702	115	1	1.06	0.94	42.1390	0.2728	0.0000	0.0000;
	36	1	0	0	0	0	1	1.03582414	-2.43287159	230	1	1.06	0.94	42.1396	0.1287	0.0000	0.0000;
	37	1	85	32	0	0	1	1.03843093	-0.304957629	115	1	1.06	0.94	41.3541	0.1315	0.0000	0.0000;
	38	1	155	18	0	0	1	1.03841478	-1.03994563	115	1	1.06	0.94	41.3959	0.1044	0.0000	0.0000;
	39	1	0	0	0	0	1	1.05999976	6.8236149	345	1	1.06	0.94	40.6477	0.0000	661.0216	0.0000;
	40	1	46	-21	0	0	1	1.04033121	-1.24702423	115	1	1.06	0.94	41.5595	0.0544	0.0000	0.0000;
	41	1	86	0	0	0	1	1.04675874	0.582182981	115	1	1.06	0.94	40.9137	0.0552	0.0000	0.0000;
	42	1	0	0	0	0	1	1.05773224	5.13414869	345	1	1.06	0.94	40.8770	0.0318	0.0000	0.0000;
	43	1	39	9	0	0	1	1.02364238	-3.42060287	115	1	1.06	0.94	42.3388	0.1229	0.0000	0.0000;
	44	1	195	29	0	0	1	1.03436713	-2.57285609	115	1	1.06	0.94	41.5762	-0.0000	0.0000	0.0000;
	45	1	0	0	0	0	1	1.04985182	0.325444144	230	1	1.06	0.94	41.4749	-0.0576	0.0000	0.0000;
	46	1	0	0	0	0	1	1.05735564	2.73279413	345	1	1.06	0.94	41.4115	-0.0509	0.0000	0.0000;
	47	1	58	11.8	0	0	1	1.00818657	-6.46679447	115	1	1.06	0.94	43.3726	0.2021	0.0000	0.0000;
	48	1	41	19	0	0	1	1.02101661	-3.44785374	115	1	1.06	0.94	42.2508	0.3471	0.0000	0.0000;
	49	1	92	26	0	0	1	1.03179788	-0.484090952	115	1	1.06	0.94	41.4564	0.2370	0.0000	0.0000;
	51	1	-5	5	0	0	1	1.03191556	-0.382119568	115	1	1.06	0.94	41.4144	0.2366	0.0000	0.0000;
	52	1	61	28	0	0	1	1.01087447	-1.75130545	115	1	1.06	0.94	42.1388	0.4820	0.0000	0.0000;
	53	1	69	3	0	0	1	1.01898117	-4.15442285	115	1	1.06	0.94	42.7128	0.1057	0.0000	0.0000;
	54	1	10	1	0	0	1	1.02766888	-2.77109607	115	1	1.06	0.94	42.0118	0.0401	0.0000	0.0000;
	55	1	22	10	0	0	1	1.03097902	-0.426106231	115	1	1.06	0.94	41.3027	0.0914	0.0000	0.0000;
	57	1	98	20	0	0	1	1.04295843	4.37701976	115	1	1.06	0.94	39.3020	0.0000	0.0000	0.0000;
	58	1	14	1	0	0	1	1.02288219	5.34945441	115	1	1.06	0.94	39.2038	0.3595	0.0000	0.0000;
	59	1	218	106	0	0	1	1.01702746	5.78490066	115	1	1.06	0.94	39.1312	0.3829	0.0000	0.0000;
	60	1	0	0	0	0	1	1.05999989	4.04649784	230	1	1.06	0.94	40.3846	-0.2984	1394.8400	0.0000;
	61	1	227	110	0	0	1	1.03173102	7.39320037	115	1	1.06	0.94	38.8062	0.1741	0.0000	0.0000;
	62	1	0	0	0	0	1	1.05459728	10.1350208	230	1	1.06	0.94	39.0354	0.2160	0.0000	0.0000;
	63	2	70	30	0	0	1	1.03534266	-0.773890774	115	1	1.06	0.94	41.2471	1.0281	0.0000	0.0000;
	64	1	0	0	0	0	1	1.02104874	2.19751848	230	1	1.06	0.94	41.1069	0.8910	0.0000	0.0000;
	69	1	0	0	0	0	1	0.998375561	-5.13039372	115	1	1.06	0.94	43.0648	0.6415	0.0000	0.0000;
	70	1	56	20	0	0	1	0.987589211	-13.0049401	115	1	1.06	0.94	46.2404	0.0970	0.0000	0.0000;
	71	1	116	38	0	0	1	1.01382706	-8.08466916	115	1	1.06	0.94	43.7227	0.0000	0.0000	0.0000;
	72	1	57	19	0	0	1	1.00711739	-5.81637281	115	1	1.06	0.94	42.6566	0.3303	0.0000	0.0000;
	73	1	224	71	0	0	1	1.0117187	-5.68252851	115	1	1.06	0.94	42.6997	0.2086	0.0000	0.0000;
	74	1	0	0	0	0	1	1.03130169	-3.13508059	230	1	1.06	0.94	42.4746	0.1354	0.0000	0.0000;
	76	2	208	107	0	0	1	1.00456387	-4.67150722	115	1	1.06	0.94	42.4850	0.4672	0.0000	0.0000;
	77	1	74	28	0	0	1	1.02139029	-3.40830606	115	1	1.06	0.94	41.7607	0.1991	0.0000	0.0000;
	78	1	0	0	0	0	1	1.0272592	-2.60665447	115	1	1.06	0.94	41.5438	0.1427	0.0000	0.0000;
	79	1	48	14	0	0	1	1.01834559	-3.91579803	115	1	1.06	0.94	42.0666	0.2369	0.0000	0.0000;
	80	1	28	7	0	0	1	1.02219965	-3.29229176	115	1	1.06	0.94	41.9759	0.1589	0.0000	0.0000;
	81	1	0	0	0	0	1	1.05709935	0.437857972	345	1	1.06	0.94	41.8111	-0.1645	0.0000	0.0000;
	84	2	37	13	0	0	1	1.05999961	4.35519012	115	1	1.06	0.94	41.5264	0.0000	410.1205	0.0000;
	85	1	0	0	0	0	1	1.0145492	-4.422807	230	1	1.06	0.94	43.7780	0.0749	0.0000	0.0000;
	86	1	0	0	0	0	1	1.0180396	-1.78602916	230	1	1.06	0.94	42.8176	0.1774	0.0000	0.0000;
	87	1	0	0	0	0	1	1.01508609	3.08658269	230	1	1.06	0.94	41.5493	0.3612	0.0000	0.0000;
	88	1	0	0	0	0	1	1.04517238	-1.50805863	230	1	1.06	0.94	41.9203	-0.0338	0.0000	0.0000;
	89	1	44.2	0	0	0	1	1.0399135	0.612056791	115	1	1.06	0.94	41.5266	0.0217	0.0000	0.0000;
	90	1	66	0	0	0	1	1.04035101	0.308850005	115	1	1.06	0.94	41.2473	0.1001	0.0000	0.0000;
	91	2	17.4	0	0	0	1	1.05645145	2.79347154	115	1	1.06	0.94	40.2702	-0.0000	0.0000	0.0000;
	92	2	15.8	0	0	0	1	1.05999973	5.95609973	115	1	1.06	0.94	39.6904	0.0000	579.0636	0.0000;
	94	1	60.3	0	0	0	1	1.01147393	1.72246486	115	1	1.06	0.94	41.3776	0.5156	0.0000	0.0000;
	97	1	39.9	0	0	0	1	1.03713569	-0.824942272	115	1	1.06	0.94	41.6899	0.0851	0.0000	0.0000;
	98	2	66.7	0	0	0	1	1.03494334	-2.03769282	115	1	1.06	0.94	42.3110	-0.0000	0.0000	0.0000;
	99	1	83.5	0	0	0	1	1.01457136	-6.38889477	115	1	1.06	0.94	44.1243	0.0230	0.0000	0.0000;
	100	1	0	0	0	0	1	1.03219286	-1.9278523	115	1	1.06	0.94	42.2586	0.0814	0.0000	0.0000;
	102	1	77.8	0	0	0	1	1.02682588	-2.64854736	115	1	1.06	0.94	42.6439	0.1335	0.0000	0.0000;
	103	1	32	0	0	0	1	1.04341119	0.427858516	115	1	1.06	0.94	40.9070	0.1722	0.0000	0.0000;
	104	1	8.6	0	0	0	1	1.02237781	-4.27421843	115	1	1.06	0.94	43.4657	-0.1036	0.0000	0.0000;
	105	1	49.6	0	0	0	1	1.03770354	-0.304186316	115	1	1.06	0.94	41.2712	0.2255	0.0000	0.0000;
	107	1	4.6	0	0	0	1	1.02862598	-3.11769258	115	1	1.06	0.94	42.0120	0.2653	0.0000	0.0000;
	108	2	112.1	0	0	0	1	1.01527296	-6.33270568	115	1	1.06	0.94	44.1058	-0.0000	0.0000	0.0000;
	109	1	30.7	0	0	0	1	1.00298819	-10.710174	115	1	1.06	0.94	45.5870	-0.2806	0.0000	0.0000;
	110	1	63	0	0	0	1	1.00032327	-10.0516191	115	1	1.06	0.94	45.6693	-0.1532	0.0000	0.0000;
	112	1	19.6	0	0	0	1	1.00222159	-12.2156412	115	1	1.06	0.94	46.1070	-0.7786	0.0000	0.0000;
	113	1	26.2	0	0	0	1	0.999737117	-9.0078678	115	1	1.06	0.94	44.7474	0.0488	0.0000	0.0000;
	114	1	18.2	0	0	0	1	1.00446836	-11.9483672	115	1	1.06	0.94	45.8729	-0.8069	0.0000	0.0000;
	115	1	0	0	0	0	1	0.979056469	-0.642926104	115	2	1.06	0.94	40.7737	0.4269	0.0000	0.0000;
	116	1	0	0	0	0	1	1.03617722	0.428304252	115	2	1.06	0.94	40.5370	0.2122	0.0000	0.0000;
	117	1	0	0	0	325	1	0.954043956	8.02281171	115	2	1.06	0.94	40.6572	0.1661	0.0000	0.0000;
	118	1	14.1	650	0	0	1	0.949105275	8.6383843	115	2	1.06	0.94	40.6050	0.1845	0.0000	0.0000;
	119	2	0	0	0	0	1	1.05999989	18.1255113	115	2	1.06	0.94	40.5720	0.0000	1472.1413	0.0000;
	120	1	777	215	0	55	1	0.976090492	4.52248388	115	2	1.06	0.94	40.5536	0.0894	0.0000	0.0000;
	121	1	535	55	0	0	1	1.00600381	0.491143427	115	2	1.06	0.94	40.7295	0.2960	0.0000	0.0000;
	122	1	229.1	11.8	0	0	1	0.991739832	-1.57823471	115	2	1.06	0.94	41.0225	0.2854	0.0000	0.0000;
	123	1	78	1.4	0	0	1	1.01655838	-4.63513703	115	2	1.06	0.94	42.2461	-0.0669	0.0000	0.0000;
	124	2	276.4	59.3	0	0	1	1.03328731	-0.384993069	115	2	1.06	0.94	40.7957	0.0000	0.0000	0.0000;
	125	2	514.8	82.7	0	0	1	1.03153996	-5.60135249	115	2	1.06	0.94	41.8631	0.0136	0.0000	0.0000;
	126	1	57.9	5.1	0	0	1	1.0179661	-1.28294628	115	2	1.06	0.94	41.5215	0.1276	0.0000	0.0000;
	127	1	380.8	37	0	0	1	1.01124299	-0.568508537	230	2	1.06	0.94	41.3436	0.2243	0.0000	0.0000;
	128	1	0	0	0	0	1	1.01403211	4.36587252	230	2	1.06	0.94	40.5436	0.4140	0.0000	0.0000;
	129	1	0	0	0	0	1	1.01585557	4.8353293	230	2	1.06	0.94	40.4854	0.4147	0.0000	0.0000;
	130	1	0	0	0	0	1	1.03440534	14.0970311	230	2	1.06	0.94	39.0068	0.3429	0.0000	0.0000;
	131	1	0	0	0	0	1	1.00126752	14.6351969	230	2	1.06	0.94	38.9729	0.3390	0.0000	0.0000;
	132	1	0	0	0	0	1	1.02130645	11.8163648	230	2	1.06	0.94	39.3339	0.4460	0.0000	0.0000;
	133	1	0	0	0	0	1	1.01196913	3.55594932	230	2	1.06	0.94	40.7035	0.4242	0.0000	0.0000;
	134	1	0	0	0	0	1	1.02280446	1.39346728	230	2	1.06	0.94	40.9032	-0.0729	0.0000	0.0000;
	135	1	169.2	41.6	0	0	1	1.02322829	2.09882688	230	2	1.06	0.94	40.7458	-0.2810	0.0000	0.0000;
	136	1	55.2	18.2	0	0	1	1.05452917	9.11006585	230	2	1.06	0.94	39.3937	-0.9535	0.0000	0.0000;
	137	1	273.6	99.8	0	0	1	1.04819864	6.78245661	230	2	1.06	0.94	39.9632	0.0476	0.0000	0.0000;
	138	2	1019.2	135.2	0	0	1	1.05999889	1.89438793	230	2	1.06	0.94	40.0363	0.0000	140.2925	0.0000;
	139	1	595	83.3	0	0	1	1.01796886	4.6954923	115	2	1.06	0.94	40.4753	0.0054	0.0000	0.0000;
	140	1	387.7	114.7	0	0	1	1.04566852	4.68815967	230	2	1.06	0.94	40.3626	0.0582	0.0000	0.0000;
	141	2	145	58	0	0	1	1.04641308	7.84888837	230	2	1.06	0.94	39.7664	0.0000	0.0000	0.0000;
	142	1	56.5	24.5	0	0	1	1.01841594	4.93516191	230	2	1.06	0.94	40.3285	0.4722	0.0000	0.0000;
	143	2	89.5	35.5	0	0	1	1.04487952	11.8478004	230	2	1.06	0.94	38.9392	-0.0000	0.0000	0.0000;
	144	1	0	0	0	0	1	1.05142094	10.2876912	230	2	1.06	0.94	39.0025	0.2350	0.0000	0.0000;
	145	1	24	14	0	0	1	1.00934494	7.21773596	230	2	1.06	0.94	40.0610	0.7550	0.0000	0.0000;
	146	2	0	0	0	0	1	1.05667418	11.4904382	230	2	1.06	0.94	39.0593	0.1423	0.0000	0.0000;
	147	2	0	0	0	0	1	1.05999973	15.1558921	230	2	1.06	0.94	38.3113	-0.0000	603.9780	0.0000;
	148	1	63	25	0	0	1	1.05999993	7.95744753	230	2	1.06	0.94	38.7176	-0.6190	2290.7256	0.0000;
	149	2	0	0	0	0	1	1.05999886	12.8396066	230	2	1.06	0.94	38.7539	0.0000	143.2010	0.0000;
	150	1	0	0	0	0	1	1.00218617	14.9610702	230	2	1.06	0.94	39.0072	0.3661	0.0000	0.0000;
	151	1	0	0	0	0	1	1.02055868	12.7148663	230	2	1.06	0.94	39.2395	0.4485	0.0000	0.0000;
	152	2	17	9	0	0	1	1.05999995	15.7118011	230	2	1.06	0.94	38.3179	-1.6738	3145.4341	0.0000;
	153	2	0	0	0	0	1	1.04640845	16.015699	230	2	1.06	0.94	38.4514	-0.6783	0.0000	0.0000;
	154	1	70	5	0	34.5	1	0.977357337	3.87588962	115	2	1.06	0.94	42.4184	-1.5653	0.0000	0.0000;
	155	1	200	50	0	0	1	1.03869902	12.099535	230	2	1.06	0.94	39.3557	-0.0423	0.0000	0.0000;
	156	2	75	50	0	0	1	0.978160857	10.5569008	115	2	1.06	0.94	39.3505	-0.0000	0.0000	0.0000;
	157	1	123.5	-24.3	0	0	1	1.00391809	0.611367158	230	2	1.06	0.94	40.9882	0.2452	0.0000	0.0000;
	158	1	0	0	0	0	1	1.01674838	0.994255375	230	2	1.06	0.94	40.9184	0.1219	0.0000	0.0000;
	159	1	33	16.5	0	0	1	1.00607177	2.75614956	230	2	1.06	0.94	40.7015	0.2286	0.0000	0.0000;
	160	1	0	0	0	0	1	1.01378105	0.245727079	230	2	1.06	0.94	40.9056	0.0607	0.0000	0.0000;
	161	1	35	15	0	0	1	1.04509151	14.3215669	230	2	1.06	0.94	38.8253	-0.4969	0.0000	0.0000;
	162	1	85	24	0	0	1	1.03473633	21.9306888	230	2	1.06	0.94	38.4908	0.0822	0.0000	0.0000;
	163	1	0	0.4	0	0	1	1.05679507	9.97073958	230	2	1.06	0.94	39.7968	-0.1172	0.0000	0.0000;
	164	1	0	0	0	-212	1	1.01215281	14.8295653	230	2	1.06	0.94	39.2216	0.0701	0.0000	0.0000;
	165	1	0	0	0	0	1	1.04702356	28.2647287	230	2	1.06	0.94	37.8510	0.0530	0.0000	0.0000;
	166	1	0	0	0	-103	1	1.0439613	31.4373494	230	2	1.06	0.94	37.7778	0.0332	0.0000	0.0000;
	167	1	299.9	95.7	0	0	1	0.985447921	2.32685865	230	2	1.06	0.94	40.9252	0.7044	0.0000	0.0000;
	168	1	0	0	0	0	1	1.01404398	4.34405138	230	2	1.06	0.94	40.5446	0.4138	0.0000	0.0000;
	169	1	0	0	0	0	1	1.0006788	2.62459102	230	2	1.06	0.94	40.8602	0.5395	0.0000	0.0000;
	170	2	481.8	205	0	0	1	0.944857797	8.81107244	115	2	1.06	0.94	39.4679	0.5347	0.0000	0.0000;
	171	2	763.6	291.1	0	0	1	0.993552905	-0.57152977	115	2	1.06	0.94	40.8859	0.4739	0.0000	0.0000;
	172	1	26.5	0	0	0	1	1.02668785	1.64345419	115	2	1.06	0.94	41.5404	0.0194	0.0000	0.0000;
	173	1	163.5	43	0	53	1	0.989589883	-5.47342471	115	2	1.06	0.94	43.7877	0.4827	0.0000	0.0000;
	174	1	0	0	0	0	1	1.05999961	5.06390289	115	2	1.06	0.94	39.9628	-0.1217	392.9952	0.0000;
	175	1	176	83	0	0	1	0.978253561	0.215871149	115	2	1.06	0.94	41.0135	0.8756	0.0000	0.0000;
	176	2	5	4	0	0	1	1.05999981	9.79809417	115	2	1.06	0.94	37.1916	0.0000	841.5313	0.0000;
	177	2	28	12	0	0	1	1.01480768	6.5594956	115	2	1.06	0.94	38.9855	0.7763	0.0000	0.0000;
	178	1	427.4	173.6	0	0	1	0.943690392	0.524899049	115	2	1.06	0.94	41.9720	1.7075	0.0000	0.0000;
	179	1	74	29	0	45	1	0.973940327	-2.01439324	115	2	1.06	0.94	42.8721	0.7372	0.0000	0.0000;
	180	1	69.5	49.3	0	0	1	0.981678421	4.18300636	115	2	1.06	0.94	40.3772	1.0387	0.0000	0.0000;
	181	1	73.4	0	0	0	1	1.05172315	6.9016283	230	2	1.06	0.94	39.9104	0.0188	0.0000	0.0000;
	182	1	240.7	89	0	0	1	1.04890001	3.98879303	230	2	1.06	0.94	40.5005	0.0171	0.0000	0.0000;
	183	1	40	4	0	0	1	0.975778694	12.7081211	115	2	1.06	0.94	38.7515	-0.6004	0.0000	0.0000;
	184	1	136.8	16.6	0	0	1	1.02280319	2.77134258	230	2	1.06	0.94	40.7097	-0.0219	0.0000	0.0000;
	185	2	0	0	0	0	1	1.02617729	5.49246516	230	2	1.06	0.94	40.3200	-0.0000	0.0000	0.0000;
	186	2	59.8	24.3	0	0	1	1.05999954	10.3611503	230	2	1.06	0.94	39.6066	-0.0000	289.1775	0.0000;
	187	2	59.8	24.3	0	0	1	1.05989962	9.60479003	230	2	1.06	0.94	39.6765	0.0000	27.9050	0.0000;
	188	1	182.6	43.6	0	0	1	1.05223093	7.49279491	230	2	1.06	0.94	39.8651	0.0242	0.0000	0.0000;
	189	1	7	2	0	0	1	1.0400725	-4.76292883	66	3	1.06	0.94	42.0031	0.3706	0.0000	0.0000;
	190	2	0	0	0	-150	1	1.04883224	2.23738698	345	3	1.06	0.94	41.3659	-0.0000	0.0000	0.0000;
	191	2	489	53	0	0	1	1.05999994	26.9412976	230	3	1.06	0.94	38.9288	0.0000	2884.2134	0.0000;
	192	1	800	72	0	0	1	0.970872756	6.22494908	230	3	1.06	0.94	40.5835	0.7848	0.0000	0.0000;
	193	1	0	0	0	0	1	1.03540297	-6.3489198	66	3	1.06	0.94	42.4471	0.4792	0.0000	0.0000;
	194	1	0	0	0	0	1	1.05999991	1.84315558	345	3	1.06	0.94	41.5232	-0.4304	1798.3454	0.0000;
	195	1	0	0	0	0	1	1.05176895	0.459455102	345	3	1.06	0.94	41.6981	-0.1183	0.0000	0.0000;
	196	1	10	3	0	0	1	1.00795467	-2.81852605	115	3	1.06	0.94	42.5886	0.4491	0.0000	0.0000;
	197	1	43	14	0	0	1	1.02539103	-1.62544501	115	3	1.06	0.94	41.8035	0.2265	0.0000	0.0000;
	198	2	64	21	0	0	1	1.04960951	1.28259418	115	3	1.06	0.94	40.7833	0.0000	0.0000	0.0000;
	199	1	35	12	0	0	1	0.992037857	-3.77073285	115	3	1.06	0.94	43.2287	0.3118	0.0000	0.0000;
	200	1	27	12	0	0	1	0.995359684	-3.63472651	115	3	1.06	0.94	43.0222	-0.1267	0.0000	0.0000;
	201	1	41	14	0	0	1	1.01222265	-7.7459424	66	1	1.06	0.94	43.2457	0.8084	0.0000	0.0000;
	202	1	38	13	0	0	1	1.0225523	-3.36476036	66	3	1.06	0.94	42.1155	0.1103	0.0000	0.0000;
	203	1	42	14	0	0	1	1.03625273	-0.473341933	115	3	1.06	0.94	41.4067	0.0849	0.0000	0.0000;
	204	1	72	24	0	0	1	1.0053604	-8.18450661	66	3	1.06	0.94	44.1253	0.9736	0.0000	0.0000;
	205	1	0	-5	0	0	1	1.02263084	-7.42008183	66	3	1.06	0.94	43.4092	0.5708	0.0000	0.0000;
	206	1	12	2	0	0	1	1.03112367	-9.31522515	66	3	1.06	0.94	45.2643	-0.3684	0.0000	0.0000;
	207	1	-21	-14.2	0	0	1	1.04001614	-9.99973608	66	1	1.06	0.94	45.7459	-1.0673	0.0000	0.0000;
	208	1	7	2	0	0	1	1.03617355	-6.01232778	66	3	1.06	0.94	42.5240	0.4254	0.0000	0.0000;
	209	1	38	13	0	0	1	1.04279237	-4.24847126	66	3	1.06	0.94	41.6330	0.4228	0.0000	0.0000;
	210	1	0	0	0	0	1	1.01611382	-2.11014132	115	3	1.06	0.94	42.0900	0.1757	0.0000	0.0000;
	211	1	96	7	0	0	1	1.03205939	-1.51326006	115	3	1.06	0.94	41.8038	0.0540	0.0000	0.0000;
	212	1	0	0	0	0	1	1.04035184	-0.766609603	138	3	1.06	0.94	41.5844	-0.0783	0.0000	0.0000;
	213	2	0	0	0	0	1	1.05518263	9.97828947	16.5	3	1.06	0.94	40.2183	0.0000	0.0000	0.0000;
	214	1	22	16	0	0	1	1.03103891	4.54868578	138	3	1.06	0.94	40.7351	0.0656	0.0000	0.0000;
	215	1	47	26	0	0	1	1.01960128	1.97461056	138	3	1.06	0.94	41.0744	0.1477	0.0000	0.0000;
	216	1	176	105	0	0	1	1.00113412	-0.030030469	138	3	1.06	0.94	41.6671	0.2785	0.0000	0.0000;
	217	1	100	75	0	0	1	1.03116501	0.518314048	138	3	1.06	0.94	41.6344	-0.0375	0.0000	0.0000;
	218	1	131	96	0	0	1	1.01591098	0.154081346	138	3	1.06	0.94	41.6663	-0.0417	0.0000	0.0000;
	219	1	0	0	0	0	1	1.0553299	1.42750713	345	3	1.06	0.94	41.5667	-0.1336	0.0000	0.0000;
	220	2	285	100	0	0	1	1.02711645	1.34813341	138	3	1.06	0.94	41.6431	0.0000	0.0000	0.0000;
	221	2	171	70	0	0	1	1.0336814	0.262047914	138	3	1.06	0.94	41.6715	0.0000	0.0000	0.0000;
...
];

%% generator data
%	bus	Pg	Qg	Qmax	Qmin	Vg	mBase	status	Pmax	Pmin	Pc1	Pc2	Qc1min	Qc1max	Qc2min	Qc2max	ramp_agc	ramp_10	ramp_30	ramp_q	apf	mu_Pmax	mu_Pmin	mu_Qmax	mu_Qmin
mpc.gen = [
	8	0.000207021935	9.99963263	10	-10	1.03212478	100	1	100	0	0	0	0	0	0	0	0	0	0	0	0	0.0000	0.7821	0.4409	0.0000;
	10	0.000200528306	19.9993579	20	-20	1.0397375	100	1	100	0	0	0	0	0	0	0	0	0	0	0	0	0.0000	0.8072	0.2519	0.0000;
	20	11.1245801	19.9995355	20	-20	1.01975658	100	1	100	0	0	0	0	0	0	0	0	0	0	0	0	0.0000	0.0000	0.3488	0.0000;
	63	62.3566794	24.9998426	25	-25	1.03534266	100	1	100	0	0	0	0	0	0	0	0	0	0	0	0	0.0000	0.0000	1.0281	0.0000;
	76	99.9996664	34.9996537	35	12	1.00456387	100	1	100	0	0	0	0	0	0	0	0	0	0	0	0	0.4850	0.0000	0.4672	0.0000;
	84	403.619665	131.703155	240	-240	1.05999961	100	1	475	0	0	0	0	0	0	0	0	0	0	0	0	0.0000	0.0000	0.0000	0.0000;
	91	157.094182	13.5961873	96	-11	1.05645145	100	1	255	0	0	0	0	0	0	0	0	0	0	0	0	0.0000	0.0000	0.0000	0.0000;
	92	285.511265	14.8385872	153	-153	1.05999973	100	1	390	0	0	0	0	0	0	0	0	0	0	0	0	0.0000	0.0000	0.0000	0.0000;
	98	75.8573067	7.81866878	56	-30	1.03494334	100	1	168	0	0	0	0	0	0	0	0	0	0	0	0	0.0000	0.0000	0.0000	0.0000;
	108	141.018912	7.96620922	77	-24	1.01527296	100	1	217	0	0	0	0	0	0	0	0	0	0	0	0	0.0000	0.0000	0.0000	0.0000;
	119	1985.19928	1048.50136	1500	-500	1.05999989	100	1	2030	0	0	0	0	0	0	0	0	0	0	0	0	0.0000	0.0000	0.0000	0.0000;
	124	249.548404	96.7635785	120	-60	1.03328731	100	1	340	0	0	0	0	0	0	0	0	0	0	0	0	0.0000	0.0000	0.0000	0.0000;
	125	93.1562452	199.854974	200	-25	1.03153996	100	1	100	0	0	0	0	0	0	0	0	0	0	0	0	0.0000	0.0000	0.0136	0.0000;
	138	1.8416496	286.93481	350	-125	1.05999889	100	1	100	0	0	0	0	0	0	0	0	0	0	0	0	0.0000	0.0000	0.0000	0.0000;
	141	277.71828	47.5953436	75	-50	1.04641308	100	1	381	0	0	0	0	0	0	0	0	0	0	0	0	0.0000	0.0000	0.0000	0.0000;
	143	659.08242	89.9808677	300	-100	1.04487952	100	1	796	0	0	0	0	0	0	0	0	0	0	0	0	0.0000	0.0000	0.0000	0.0000;
	146	80.0492161	34.9988738	35	-15	1.05667418	100	1	184	0	0	0	0	0	0	0	0	0	0	0	0	0.0000	0.0000	0.1423	0.0000;
	147	198.677385	-41.7073226	100	-50	1.05999973	100	1	317	0	0	0	0	0	0	0	0	0	0	0	0	0.0000	0.0000	0.0000	0.0000;
	149	96.5823841	22.8126967	50	-25	1.05999886	100	1	203	0	0	0	0	0	0	0	0	0	0	0	0	0.0000	0.0000	0.0000	0.0000;
	152	340.713132	-49.9999052	175	-50	1.05999995	100	1	472	0	0	0	0	0	0	0	0	0	0	0	0	0.0000	0.0000	0.0000	1.6738;
	153	199.27494	-49.9997667	90	-50	1.04640845	100	1	316	0	0	0	0	0	0	0	0	0	0	0	0	0.0000	0.0000	0.0000	0.6783;
	156	0.000250891441	-2.77666498	15	-10	0.978160857	100	1	100	0	0	0	0	0	0	0	0	0	0	0	0	0.0000	0.6495	0.0000	0.0000;
	170	199.545757	89.9996967	90	-40	0.944857797	100	1	305	0	0	0	0	0	0	0	0	0	0	0	0	0.0000	0.0000	0.5347	0.0000;
	171	44.293955	149.999656	150	-50	0.993552905	100	1	100	0	0	0	0	0	0	0	0	0	0	0	0	0.0000	0.0000	0.4739	0.0000;
	176	195.984652	46.5931644	90	-45	1.05999981	100	1	328	0	0	0	0	0	0	0	0	0	0	0	0	0.0000	0.0000	0.0000	0.0000;
	177	79.7391559	34.9997918	35	-15	1.01480768	100	1	184	0	0	0	0	0	0	0	0	0	0	0	0	0.0000	0.0000	0.7763	0.0000;
	185	203.200289	-10.4068678	80	-50	1.02617729	100	1	300	0	0	0	0	0	0	0	0	0	0	0	0	0.0000	0.0000	0.0000	0.0000;
	186	1176.39461	145.281187	400	-100	1.05999954	100	1	1300	0	0	0	0	0	0	0	0	0	0	0	0	0.0000	0.0000	0.0000	0.0000;
	187	1180.59128	164.003934	400	-100	1.05989962	100	1	1300	0	0	0	0	0	0	0	0	0	0	0	0	0.0000	0.0000	0.0000	0.0000;
	190	507.439029	-230.773601	300	-300	1.04883224	100	1	575	0	0	0	0	0	0	0	0	0	0	0	0	0.0000	0.0000	0.0000	0.0000;
	191	1867.32546	579.49468	1000	-1000	1.05999994	100	1	2073	0	0	0	0	0	0	0	0	0	0	0	0	0.0000	0.0000	0.0000	0.0000;
	198	440.60512	103.708314	260	-260	1.04960951	100	1	524	0	0	0	0	0	0	0	0	0	0	0	0	0.0000	0.0000	0.0000	0.0000;
	213	274.968994	61.7977192	150	-150	1.05518263	100	1	372	0	0	0	0	0	0	0	0	0	0	0	0	0.0000	0.0000	0.0000	0.0000;
	220	108.215721	8.55174439	60	-60	1.02711645	100	1	200	0	0	0	0	0	0	0	0	0	0	0	0	0.0000	0.0000	0.0000	0.0000;
	221	487.607974	248.596496	320	-320	1.0336814	100	1	550	0	0	0	0	0	0	0	0	0	0	0	0	0.0000	0.0000	0.0000	0.0000;
	222	269.700791	97.2637706	300	-300	1.01413378	100	1	350	0	0	0	0	0	0	0	0	0	0	0	0	0.0000	0.0000	0.0000	0.0000;
	227	328.531913	294.11771	300	-300	1.0138443	100	1	403	0	0	0	0	0	0	0	0	0	0	0	0	0.0000	0.0000	0.0000	0.0000;
	230	360.869284	45.5153314	250	-250	1.03355214	100	1	445	0	0	0	0	0	0	0	0	0	0	0	0	0.0000	0.0000	0.0000	0.0000;
	233	325.821241	183.567985	500	-500	1.02700264	100	1	400	0	0	0	0	0	0	0	0	0	0	0	0	0.0000	0.0000	0.0000	0.0000;
	236	634.531912	170.397552	300	-300	0.988820285	100	1	700	0	0	0	0	0	0	0	0	0	0	0	0	0.0000	0.0000	0.0000	0.0000;
	238	265.698994	199.996388	200	-200	1.03058078	100	1	350	0	0	0	0	0	0	0	0	0	0	0	0	0.0000	0.0000	0.0449	0.0000;
	239	578.166985	165.818094	400	-400	1.03491168	100	1	650	0	0	0	0	0	0	0	0	0	0	0	0	0.0000	0.0000	0.0000	0.0000;
	241	612.465337	-161.889521	600	-600	1.02734592	100	1	675.43	0	0	0	0	0	0	0	0	0	0	0	0	0.0000	0.0000	0.0000	0.0000;
	242	176.203458	76.3221454	100	40	1.03385912	100	1	270	0	0	0	0	0	0	0	0	0	0	0	0	0.0000	0.0000	0.0000	0.0000;
	243	85.6170031	40.0005741	80	40	1.03738843	100	1	184	0	0	0	0	0	0	0	0	0	0	0	0	0.0000	0.0000	0.0000	0.2813;
	7001	435.635081	109.186236	210	-210	1.05999978	100	1	567	0	0	0	0	0	0	0	0	0	0	0	0	0.0000	0.0000	0.0000	0.0000;
	7002	558.14322	62.6250301	280	-280	1.05999987	100	1	723	0	0	0	0	0	0	0	0	0	0	0	0	0.0000	0.0000	0.0000	0.0000;
	7003	1141.5665	419.999368	420	-420	1.04856469	100	1	1310	0	0	0	0	0	0	0	0	0	0	0	0	0.0000	0.0000	0.2558	0.0000;
	7011	224.821588	99.9995021	100	-100	1.04807786	100	1	334	0	0	0	0	0	0	0	0	0	0	0	0	0.0000	0.0000	0.3246	0.0000;
	7012	355.420588	179.859852	224	-224	1.05999975	100	1	472	0	0	0	0	0	0	0	0	0	0	0	0	0.0000	0.0000	0.0000	0.0000;
	7017	387.993508	266.089668	350	0	1.03474431	100	1	430	0	0	0	0	0	0	0	0	0	0	0	0	0.0000	0.0000	0.0000	0.0000;
	7023	166.292405	0.000296620639	120	0	1.05938496	100	1	285	0	0	0	0	0	0	0	0	0	0	0	0	0.0000	0.0000	0.0000	0.5465;
	7024	384.343857	81.0357403	224	-224	1.03197011	100	1	510	0	0	0	0	0	0	0	0	0	0	0	0	0.0000	0.0000	0.0000	0.0000;
	7039	516.192186	49.1839914	200	-200	1.02623975	100	1	600	0	0	0	0	0	0	0	0	0	0	0	0	0.0000	0.0000	0.0000	0.0000;
	7044	39.9160671	16.1560781	42	0	0.998344568	100	1	137	0	0	0	0	0	0	0	0	0	0	0	0	0.0000	0.0000	0.0000	0.0000;
	7049	72.6199955	9.99928016	10	0	1.0329614	100	1	2399.005	0	0	0	0	0	0	0	0	0	0	0	0	0.0000	0.0000	0.2365	0.0000;
	7055	47.8971868	24.9977156	25	0	1.01070758	100	1	145	0	0	0	0	0	0	0	0	0	0	0	0	0.0000	0.0000	0.0851	0.0000;
	7057	159.241746	39.8680136	90	-90	1.00697307	100	1	265	0	0	0	0	0	0	0	0	0	0	0	0	0.0000	0.0000	0.0000	0.0000;
	7061	375.83791	141.298732	150	-150	1.05999979	100	1	500	0	0	0	0	0	0	0	0	0	0	0	0	0.0000	0.0000	0.0000	0.0000;
	7062	379.813283	149.99919	150	0	1.03814183	100	1	500	0	0	0	0	0	0	0	0	0	0	0	0	0.0000	0.0000	0.2036	0.0000;
	7071	137.591793	75.9993336	87	0	1.01325518	100	1	216	0	0	0	0	0	0	0	0	0	0	0	0	0.0000	0.0000	0.0000	0.0000;
	7130	1222.95864	273.762303	600	-100	1.05999991	100	1	1392	0	0	0	0	0	0	0	0	0	0	0	0	0.0000	0.0000	0.0000	0.0000;
	7139	716.612767	306.574363	325	-125	1.05998905	100	1	800	0	0	0	0	0	0	0	0	0	0	0	0	0.0000	0.0000	0.0000	0.0000;
	7166	491.492434	127.219729	300	-200	1.05999929	100	1	653	0	0	0	0	0	0	0	0	0	0	0	0	0.0000	0.0000	0.0000	0.0000;
	9002	28.1397483	1.99938163	2	-2	1.03718161	100	1	100	0	0	0	0	0	0	0	0	0	0	0	0	0.0000	0.0000	0.2621	0.0000;
	9051	53.5801615	10.3492306	17.35	-17.35	1.02688369	100	1	100	0	0	0	0	0	0	0	0	0	0	0	0	0.0000	0.0000	0.0000	0.0000;
	9053	50.1069573	8.04302368	12.83	-12.8	1.01699605	100	1	100	0	0	0	0	0	0	0	0	0	0	0	0	0.0000	0.0000	0.0000	0.0000;
	9054	53.2221642	37.9983212	38	-38	1.04083208	100	1	150	0	0	0	0	0	0	0	0	0	0	0	0	0.0000	0.0000	0.1068	0.0000;
	9055	8.51658883	5.9984809	6	-6	1.0326665	100	1	108	0	0	0	0	0	0	0	0	0	0	0	0	0.0000	0.0000	0.1082	0.0000;
];

%% branch data
%	fbus	tbus	r	x	b	rateA	rateB	rateC	ratio	angle	status	angmin	angmax	Pf	Qf	Pt	Qt	mu_Sf	mu_St	mu_angmin	mu_angmax
mpc.branch = [
	37	9001	6e-05	0.00046	0	0	0	75	1.0082	0	1	-360	360	-56.1499	-9.3699	56.1517	9.3840	0.0000	0.0000	0.0000	0.0000;
	9001	9005	0.0008	0.00348	0	0	0	0	0	0	1	-360	360	-71.4174	-23.0842	71.4599	23.2690	0.0000	0.0000	0.0000	0.0000;
	9001	9006	0.02439	0.43682	0	0	0	0	0.9668	0	1	-360	360	26.4494	9.9158	-26.2780	-6.8454	0.0000	0.0000	0.0000	0.0000;
	9001	9012	0.03624	0.64898	0	0	0	0	0.9796	0	1	-360	360	-11.1837	3.7844	11.2294	-2.9662	0.0000	0.0000	0.0000	0.0000;
	9005	9051	0.01578	0.37486	0	0	0	0	1.0435	0	1	-360	360	-17.7069	-8.8459	17.7702	10.3492	0.0000	0.0000	0.0000	0.0000;
	9005	9052	0.01578	0.37486	0	0	0	0	0.9391	0	1	-360	360	30.2245	28.3339	-30.0000	-23.0000	0.0000	0.0000	0.0000	0.0000;
	9005	9053	0.01602	0.38046	0	0	0	0	1.0435	0	1	-360	360	-22.2387	-5.5744	22.3249	7.6215	0.0000	0.0000	0.0000	0.0000;
	9005	9054	0	0.152	0	0	0	0	1.0435	0	1	-360	360	-53.2222	-31.9981	53.2222	37.9983	0.0000	0.0000	0.0000	0.0000;
	9005	9055	0	0.8	0	0	0	0	1.0435	0	1	-360	360	-8.5166	-5.1844	8.5166	5.9985	0.0000	0.0000	0.0000	0.0000;
	9006	9007	0.05558	0.24666	0	0	0	0	0	0	1	-360	360	9.4781	2.5525	-9.4270	-2.3259	0.0000	0.0000	0.0000	0.0000;
	9006	9003	0.11118	0.49332	0	0	0	0	0	0	1	-360	360	8.4000	2.1465	-8.3203	-1.7930	0.0000	0.0000	0.0000	0.0000;
	9006	9003	0.11118	0.49332	0	0	0	0	0	0	1	-360	360	8.4000	2.1465	-8.3203	-1.7930	0.0000	0.0000	0.0000	0.0000;
	9012	9002	0.07622	0.43286	0	0	0	0	0	0	1	-360	360	-7.5331	0.7808	7.5739	-0.5488	0.0000	0.0000	0.0000	0.0000;
	9012	9002	0.07622	0.43286	0	0	0	0	0	0	1	-360	360	-7.5331	0.7808	7.5739	-0.5488	0.0000	0.0000	0.0000	0.0000;
	9002	9021	0.0537	0.07026	0	0	0	0	0	0	1	-360	360	7.3588	2.5568	-7.3285	-2.5172	0.0000	0.0000	0.0000	0.0000;
	9021	9023	1.1068	0.95278	0	0	0	0	0	0	1	-360	360	0.9546	0.3476	-0.9438	-0.3383	0.0000	0.0000	0.0000	0.0000;
	9021	9022	0.44364	2.8152	0	0	0	0	1	0	1	-360	360	1.6240	0.6096	-1.6114	-0.5300	0.0000	0.0000	0.0000	0.0000;
	9002	9024	0.50748	3.2202	0	0	0	0	1	0	1	-360	360	1.4331	0.5402	-1.4220	-0.4700	0.0000	0.0000	0.0000	0.0000;
	9023	9025	0.66688	3.944	0	0	0	0	1	0	1	-360	360	0.4720	0.1696	-0.4703	-0.1600	0.0000	0.0000	0.0000	0.0000;
	9023	9026	0.6113	3.6152	0	0	0	0	1	0	1	-360	360	0.4719	0.1688	-0.4704	-0.1600	0.0000	0.0000	0.0000	0.0000;
	9007	9071	0.4412	2.9668	0	0	0	0	1	0	1	-360	360	1.0754	0.3878	-1.0698	-0.3500	0.0000	0.0000	0.0000	0.0000;
	9007	9072	0.30792	2.057	0	0	0	0	1	0	1	-360	360	1.0741	0.3760	-1.0702	-0.3500	0.0000	0.0000	0.0000	0.0000;
	9007	9003	0.0558	0.24666	0	0	0	0	0	0	1	-360	360	7.2775	1.5622	-7.2474	-1.4291	0.0000	0.0000	0.0000	0.0000;
	9003	9031	0.73633	4.6724	0	0	0	0	1	0	1	-360	360	1.9647	0.8519	-1.9313	-0.6400	0.0000	0.0000	0.0000	0.0000;
	9003	9032	0.76978	4.8846	0	0	0	0	1	0	1	-360	360	1.4748	0.6026	-1.4555	-0.4800	0.0000	0.0000	0.0000	0.0000;
	9003	9033	0.75732	4.8056	0	0	0	0	1	0	1	-360	360	2.0170	0.8802	-1.9807	-0.6500	0.0000	0.0000	0.0000	0.0000;
	9003	9044	0.07378	0.06352	0	0	0	0	0	0	1	-360	360	4.4090	1.5767	-4.3930	-1.5629	0.0000	0.0000	0.0000	0.0000;
	9044	9004	0.03832	0.02894	0	0	0	0	0	0	1	-360	360	4.3930	1.5629	-4.3847	-1.5566	0.0000	0.0000	0.0000	0.0000;
	9004	9041	0.36614	2.456	0	0	0	0	1	0	1	-360	360	1.0633	0.3814	-1.0586	-0.3500	0.0000	0.0000	0.0000	0.0000;
	9004	9042	1.0593	5.4536	0	0	0	0	1	0	1	-360	360	0.8568	0.3259	-0.8479	-0.2800	0.0000	0.0000	0.0000	0.0000;
	9004	9043	0.1567	1.6994	0	0	0	0	1	0	1	-360	360	1.6045	0.5693	-1.6000	-0.5200	0.0000	0.0000	0.0000	0.0000;
	9003	9034	0.13006	1.3912	0	0	0	0	1	0	1	-360	360	1.6385	-1.1936	-1.6333	1.2502	0.0000	0.0000	0.0000	0.0000;
	9003	9035	0.54484	3.4572	0	0	0	0	1	0	1	-360	360	1.7647	0.7034	-1.7453	-0.5800	0.0000	0.0000	0.0000	0.0000;
	9003	9036	0.15426	1.6729	0	0	0	0	1	0	1	-360	360	3.0463	1.1764	-3.0300	-1.0000	0.0000	0.0000	0.0000	0.0000;
	9003	9037	0.3849	2.5712	0	0	0	0	1	0	1	-360	360	1.9730	0.7534	-1.9560	-0.6400	0.0000	0.0000	0.0000	0.0000;
	9003	9038	0.4412	2.9668	0	0	0	0	1	0	1	-360	360	2.7484	1.1505	-2.7097	-0.8900	0.0000	0.0000	0.0000	0.0000;
	9012	9121	0.23552	0.99036	0	0	0	0	0	0	1	-360	360	3.8367	1.4045	-3.8000	-1.2500	0.0000	0.0000	0.0000	0.0000;
	9053	9533	0	0.75	0	0	0	0	0.9583	0	1	-360	360	1.3020	0.4225	-1.3020	-0.4100	0.0000	0.0000	0.0000	0.0000;
	1	5	0.001	0.006	0	0	0	0	0	0	1	-360	360	385.2771	78.0706	-383.8565	-69.5470	0.0000	0.0000	0.0000	0.0000;
	2	6	0.001	0.009	0	0	0	0	0	0	1	-360	360	145.8273	25.3329	-145.6282	-23.5407	0.0000	0.0000	0.0000	0.0000;
	2	8	0.006	0.027	0.054	0	0	0	0	0	1	-360	360	328.4210	2.5350	-322.5369	18.0967	0.0000	0.0000	0.0000	0.0000;
	3	7	0	0.003	0	0	0	0	0	0	1	-360	360	309.5390	138.0293	-309.5390	-134.6703	0.0000	0.0000	0.0000	0.0000;
	3	19	0.008	0.069	0.139	0	0	0	0	0	1	-360	360	135.4252	2.7141	-133.9875	-4.3891	0.0000	0.0000	0.0000	0.0000;
	3	150	0.001	0.007	0	0	0	0	0	0	1	-360	360	106.4228	139.6157	-106.1224	-137.5129	0.0000	0.0000	0.0000	0.0000;
	4	16	0.002	0.019	1.127	0	0	0	0	0	1	-360	360	555.6249	-93.4450	-549.9767	23.4963	0.0000	0.0000	0.0000	0.0000;
	5	9	0.006	0.029	0.018	0	0	0	0	0	1	-360	360	115.8071	15.6177	-115.0405	-13.8207	0.0000	0.0000	0.0000	0.0000;
	7	12	0.001	0.009	0.07	0	0	0	0	0	1	-360	360	198.7254	-64.7801	-198.3005	61.4540	0.0000	0.0000	0.0000	0.0000;
	7	131	0.001	0.007	0.014	0	0	0	0	0	1	-360	360	51.4912	100.8433	-51.3638	-101.3658	0.0000	0.0000	0.0000	0.0000;
	8	11	0.013	0.0595	0.033	0	0	0	0	0	1	-360	360	11.5933	-1.5321	-11.5769	-1.9029	0.0000	0.0000	0.0000	0.0000;
	8	14	0.013	0.042	0.081	0	0	0	0	0	1	-360	360	247.9439	-20.5650	-240.4095	36.4385	0.0000	0.0000	0.0000	0.0000;
	9	11	0.006	0.027	0.013	0	0	0	0	0	1	-360	360	19.0405	-29.1793	-18.9733	28.1096	0.0000	0.0000	0.0000	0.0000;
	11	13	0.008	0.034	0.018	0	0	0	0	0	1	-360	360	152.8022	-0.2868	-151.0434	5.8700	0.0000	0.0000	0.0000	0.0000;
	12	21	0.002	0.015	0.118	0	0	0	0	0	1	-360	360	420.2910	92.8892	-416.6536	-77.4559	0.0000	0.0000	0.0000	0.0000;
	13	20	0.006	0.034	0.016	0	0	0	0	0	1	-360	360	93.0434	-15.8700	-92.5308	17.1108	0.0000	0.0000	0.0000	0.0000;
	14	15	0.014	0.042	0.097	0	0	0	0	0	1	-360	360	80.4095	-96.4385	-78.3851	92.2856	0.0000	0.0000	0.0000	0.0000;
	15	37	0.065	0.248	0.121	0	0	0	0	0	1	-360	360	23.3816	-11.0818	-23.0411	-0.6940	0.0000	0.0000	0.0000	0.0000;
	15	89	0.099	0.248	0.035	0	0	0	0	0	1	-360	360	15.4255	-7.4143	-15.1801	4.2416	0.0000	0.0000	0.0000	0.0000;
	15	90	0.096	0.363	0.048	0	0	0	0	0	1	-360	360	12.8287	-5.6127	-12.6747	0.9985	0.0000	0.0000	0.0000	0.0000;
	16	42	0.002	0.022	1.28	0	0	0	0	0	1	-360	360	271.0294	-136.8959	-269.6088	10.7223	0.0000	0.0000	0.0000	0.0000;
	19	21	0.002	0.018	0.036	0	0	0	0	0	1	-360	360	-14.3139	45.9468	14.3636	-49.0670	0.0000	0.0000	0.0000	0.0000;
	19	87	0.013	0.08	0.151	0	0	0	0	0	1	-360	360	148.3014	-41.5577	-145.2898	44.7661	0.0000	0.0000	0.0000	0.0000;
	20	22	0.016	0.033	0.015	0	0	0	0	0	1	-360	360	-5.8147	21.3282	5.8951	-22.7127	0.0000	0.0000	0.0000	0.0000;
	20	27	0.069	0.186	0.098	0	0	0	0	0	1	-360	360	27.7309	0.7016	-27.1984	-9.1788	0.0000	0.0000	0.0000	0.0000;
	21	24	0.004	0.034	0.28	0	0	0	0	0	1	-360	360	-197.9708	-53.0859	199.6289	38.9976	0.0000	0.0000	0.0000	0.0000;
	22	23	0.052	0.111	0.05	0	0	0	0	0	1	-360	360	-86.8951	-0.2873	90.7200	3.0749	0.0000	0.0000	0.0000	0.0000;
	23	25	0.019	0.039	0.018	0	0	0	0	0	1	-360	360	122.5290	10.0447	-119.9696	-6.7663	0.0000	0.0000	0.0000	0.0000;
	24	319	0.007	0.068	0.134	0	0	0	0	0	1	-360	360	116.7583	-28.6266	-115.8000	24.0000	0.0000	0.0000	0.0000	0.0000;
	25	26	0.036	0.071	0.034	0	0	0	0	0	1	-360	360	74.9696	-5.2337	-73.0763	5.4042	0.0000	0.0000	0.0000	0.0000;
	26	27	0.045	0.12	0.065	0	0	0	0	0	1	-360	360	42.6016	-0.5722	-41.8016	-3.8212	0.0000	0.0000	0.0000	0.0000;
	26	320	0.043	0.13	0.014	0	0	0	0	0	1	-360	360	2.4747	-13.8320	-2.4000	12.6000	0.0000	0.0000	0.0000	0.0000;
	33	34	0	0.063	0	0	0	0	0	0	1	-360	360	-151.7635	-13.2241	151.7635	26.6795	0.0000	0.0000	0.0000	0.0000;
	33	38	0.0025	0.012	0.013	0	0	0	0	0	1	-360	360	93.3465	14.8807	-93.1404	-15.2987	0.0000	0.0000	0.0000	0.0000;
	33	40	0.006	0.029	0.02	0	0	0	0	0	1	-360	360	50.3186	-3.7292	-50.1784	2.2380	0.0000	0.0000	0.0000	0.0000;
	33	41	0.007	0.043	0.026	0	0	0	0	0	1	-360	360	-46.9016	-3.9273	47.0437	1.9633	0.0000	0.0000	0.0000	0.0000;
	34	42	0.001	0.008	0.042	0	0	0	0	0	1	-360	360	-151.7635	-26.6795	151.9761	23.6954	0.0000	0.0000	0.0000	0.0000;
	35	72	0.012	0.06	0.008	0	0	0	0	0	1	-360	360	48.1331	1.3269	-47.8621	-0.7882	0.0000	0.0000	0.0000	0.0000;
	35	76	0.006	0.014	0.002	0	0	0	0	0	1	-360	360	73.2140	33.0711	-72.8366	-32.3941	0.0000	0.0000	0.0000	0.0000;
	35	77	0.01	0.029	0.003	0	0	0	0	0	1	-360	360	-52.8961	-9.3228	53.1767	9.8260	0.0000	0.0000	0.0000	0.0000;
	36	88	0.004	0.027	0.043	0	0	0	0	0	1	-360	360	-68.4510	-27.5071	68.6494	24.1906	0.0000	0.0000	0.0000	0.0000;
	37	38	0.008	0.047	0.008	0	0	0	0	0	1	-360	360	28.6389	-5.0816	-28.5764	4.5858	0.0000	0.0000	0.0000	0.0000;
	37	40	0.022	0.064	0.007	0	0	0	0	0	1	-360	360	23.9423	-11.4627	-23.8003	11.1197	0.0000	0.0000	0.0000	0.0000;
	37	41	0.01	0.036	0.02	0	0	0	0	0	1	-360	360	-49.5018	-10.9877	49.7382	9.6645	0.0000	0.0000	0.0000	0.0000;
	37	49	0.017	0.081	0.048	0	0	0	0	0	1	-360	360	5.6719	4.7317	-5.6583	-9.8104	0.0000	0.0000	0.0000	0.0000;
	37	89	0.102	0.254	0.033	0	0	0	0	0	1	-360	360	-6.0501	0.0986	6.0880	-3.5677	0.0000	0.0000	0.0000	0.0000;
	37	90	0.047	0.127	0.016	0	0	0	0	0	1	-360	360	-8.5103	0.7656	8.5430	-2.4058	0.0000	0.0000	0.0000	0.0000;
	38	41	0.008	0.037	0.02	0	0	0	0	0	1	-360	360	-84.0410	-5.1475	84.5662	5.4027	0.0000	0.0000	0.0000	0.0000;
	38	43	0.032	0.087	0.04	0	0	0	0	0	1	-360	360	50.7578	-2.1396	-49.9932	-0.0341	0.0000	0.0000	0.0000	0.0000;
	39	42	0.0006	0.0064	0.404	0	0	0	0	0	1	-360	360	516.1922	-25.9185	-514.7693	-4.2001	0.0000	0.0000	0.0000	0.0000;
	40	48	0.026	0.154	0.022	0	0	0	0	0	1	-360	360	27.9787	7.6424	-27.7719	-8.7547	0.0000	0.0000	0.0000	0.0000;
	41	42	0	0.029	0	0	0	0	0	0	1	-360	360	-303.0008	-27.5664	303.0008	52.0668	0.0000	0.0000	0.0000	0.0000;
	41	49	0.065	0.191	0.02	0	0	0	0	0	1	-360	360	11.9611	3.1308	-11.8656	-5.0106	0.0000	0.0000	0.0000	0.0000;
	41	51	0.031	0.089	0.036	0	0	0	0	0	1	-360	360	23.6917	7.4050	-23.5080	-10.7667	0.0000	0.0000	0.0000	0.0000;
	42	46	0.002	0.014	0.806	0	0	0	0	0	1	-360	360	329.4013	-82.2843	-327.4369	5.8922	0.0000	0.0000	0.0000	0.0000;
	43	44	0.026	0.072	0.035	0	0	0	0	0	1	-360	360	-24.0675	-8.2294	24.2214	4.9494	0.0000	0.0000	0.0000	0.0000;
	43	48	0.095	0.262	0.032	0	0	0	0	0	1	-360	360	0.4965	-0.8306	-0.4956	-2.5115	0.0000	0.0000	0.0000	0.0000;
	43	53	0.013	0.039	0.016	0	0	0	0	0	1	-360	360	34.5643	0.0940	-34.4159	-1.3180	0.0000	0.0000	0.0000	0.0000;
	44	47	0.027	0.084	0.039	0	0	0	0	0	1	-360	360	86.6402	5.1695	-84.7325	-3.3031	0.0000	0.0000	0.0000	0.0000;
	44	54	0.028	0.084	0.037	0	0	0	0	0	1	-360	360	6.4173	4.1373	-6.3967	-8.0087	0.0000	0.0000	0.0000	0.0000;
	45	60	0.007	0.041	0.312	0	0	0	0	0	1	-360	360	-174.5244	-7.6605	176.4647	-15.6977	0.0000	0.0000	0.0000	0.0000;
	45	74	0.009	0.054	0.411	0	0	0	0	0	1	-360	360	124.1953	-3.6287	-122.9062	-33.1437	0.0000	0.0000	0.0000	0.0000;
	46	81	0.005	0.042	0.69	0	0	0	0	0	1	-360	360	105.4033	-48.3393	-104.9022	-24.5745	0.0000	0.0000	0.0000	0.0000;
	47	73	0.052	0.145	0.073	0	0	0	0	0	1	-360	360	-9.2908	-2.7681	9.3354	-4.5535	0.0000	0.0000	0.0000	0.0000;
	47	113	0.043	0.118	0.013	0	0	0	0	0	1	-360	360	36.0233	-5.7287	-35.4635	5.9547	0.0000	0.0000	0.0000	0.0000;
	48	107	0.025	0.062	0.007	0	0	0	0	0	1	-360	360	-12.7325	-7.7338	12.7844	7.1273	0.0000	0.0000	0.0000	0.0000;
	49	51	0.031	0.094	0.043	0	0	0	0	0	1	-360	360	-1.8560	-1.8042	1.8571	-2.7709	0.0000	0.0000	0.0000	0.0000;
	51	52	0.037	0.109	0.049	0	0	0	0	0	1	-360	360	26.6509	8.5376	-26.3609	-12.7958	0.0000	0.0000	0.0000	0.0000;
	52	55	0.027	0.08	0.036	0	0	0	0	0	1	-360	360	-34.6391	-15.2042	35.0033	12.5308	0.0000	0.0000	0.0000	0.0000;
	53	54	0.025	0.073	0.035	0	0	0	0	0	1	-360	360	-34.5841	-1.6820	34.8720	-1.1423	0.0000	0.0000	0.0000	0.0000;
	54	55	0.035	0.103	0.047	0	0	0	0	0	1	-360	360	-38.4753	8.1511	39.0034	-11.5767	0.0000	0.0000	0.0000	0.0000;
	55	57	0.065	0.169	0.082	0	0	0	0	0	1	-360	360	-48.1095	9.0720	49.6352	-13.9230	0.0000	0.0000	0.0000	0.0000;
	57	58	0.046	0.08	0.036	0	0	0	0	0	1	-360	360	-5.6152	27.6362	5.9989	-30.8102	0.0000	0.0000	0.0000	0.0000;
	57	63	0.159	0.537	0.071	0	0	0	0	0	1	-360	360	17.2217	-6.6696	-16.7767	0.5057	0.0000	0.0000	0.0000	0.0000;
	58	59	0.009	0.026	0.005	0	0	0	0	0	1	-360	360	-19.9989	29.8102	20.1111	-30.0062	0.0000	0.0000	0.0000	0.0000;
	59	61	0.002	0.013	0.015	0	0	0	0	0	1	-360	360	-238.1111	-75.9938	239.3168	82.2566	0.0000	0.0000	0.0000	0.0000;
	60	62	0.009	0.065	0.485	0	0	0	0	0	1	-360	360	-176.4647	15.6977	179.1067	-50.8341	0.0000	0.0000	0.0000	0.0000;
	62	64	0.016	0.105	0.203	0	0	0	0	0	1	-360	360	144.8844	10.1544	-141.7983	-11.7727	0.0000	0.0000	0.0000	0.0000;
	62	144	0.001	0.007	0.013	0	0	0	0	0	1	-360	360	-34.6566	52.1380	34.6925	-53.3280	0.0000	0.0000	0.0000	0.0000;
	63	526	0.0265	0.172	0.026	0	0	0	0	0	1	-360	360	150.9317	-1.1125	-145.3000	34.9000	0.0000	0.0000	0.0000	0.0000;
	69	211	0.051	0.232	0.028	0	0	0	0	0	1	-360	360	-29.5822	-8.5030	30.0558	7.7708	0.0000	0.0000	0.0000	0.0000;
	69	79	0.051	0.157	0.023	0	0	0	0	0	1	-360	360	-16.1052	-8.4683	16.2653	6.6224	0.0000	0.0000	0.0000	0.0000;
	70	71	0.032	0.1	0.062	0	0	0	0	0	1	-360	360	-84.3500	1.7458	86.6918	-0.6375	0.0000	0.0000	0.0000	0.0000;
	70	528	0.02	0.1234	0.028	0	0	0	0	0	1	-360	360	28.3500	-21.7458	-28.1000	20.5000	0.0000	0.0000	0.0000	0.0000;
	71	72	0.036	0.131	0.068	0	0	0	0	0	1	-360	360	-27.1997	9.7835	27.5206	-15.5591	0.0000	0.0000	0.0000	0.0000;
	71	73	0.034	0.099	0.047	0	0	0	0	0	1	-360	360	-37.9003	13.6704	38.4611	-16.8584	0.0000	0.0000	0.0000	0.0000;
	72	77	0.018	0.087	0.011	0	0	0	0	0	1	-360	360	-50.7104	-5.5443	51.1712	6.6397	0.0000	0.0000	0.0000	0.0000;
	72	531	0.0256	0.193	0	0	0	0	0	0	1	-360	360	14.0519	2.8916	-14.0000	-2.5000	0.0000	0.0000	0.0000	0.0000;
	73	76	0.021	0.057	0.03	0	0	0	0	0	1	-360	360	-23.4917	20.0965	23.7010	-22.5777	0.0000	0.0000	0.0000	0.0000;
	73	79	0.018	0.052	0.018	0	0	0	0	0	1	-360	360	-58.2427	7.2882	58.8511	-7.3852	0.0000	0.0000	0.0000	0.0000;
	74	88	0.004	0.027	0.05	0	0	0	0	0	1	-360	360	-118.3630	-36.4952	118.9329	34.9524	0.0000	0.0000	0.0000	0.0000;
	74	562	0.0286	0.2013	0.379	0	0	0	0	0	1	-360	360	51.2072	-17.3573	-50.5000	-17.4000	0.0000	0.0000	0.0000	0.0000;
	76	77	0.016	0.043	0.004	0	0	0	0	0	1	-360	360	-58.8647	-17.0286	59.4590	18.2152	0.0000	0.0000	0.0000	0.0000;
	77	78	0.001	0.006	0.007	0	0	0	0	0	1	-360	360	-253.9747	-56.2319	254.6229	59.3867	0.0000	0.0000	0.0000	0.0000;
	77	80	0.014	0.07	0.038	0	0	0	0	0	1	-360	360	-3.1304	-2.5340	3.1318	-1.4267	0.0000	0.0000	0.0000	0.0000;
	77	552	0.0891	0.2676	0.029	0	0	0	0	0	1	-360	360	-10.9909	-4.1480	11.1000	1.4000	0.0000	0.0000	0.0000	0.0000;
	77	609	0.0782	0.2127	0.022	0	0	0	0	0	1	-360	360	30.2891	0.2329	-29.6000	-0.6000	0.0000	0.0000	0.0000	0.0000;
	78	79	0.006	0.022	0.011	0	0	0	0	0	1	-360	360	111.9967	11.7371	-111.2749	-10.2412	0.0000	0.0000	0.0000	0.0000;
	78	84	0	0.036	0	0	0	0	0	0	1	-360	360	-366.6197	-71.1238	366.6197	118.7032	0.0000	0.0000	0.0000	0.0000;
	79	211	0.099	0.375	0.051	0	0	0	0	0	1	-360	360	-11.8415	-2.9960	11.9755	-1.8570	0.0000	0.0000	0.0000	0.0000;
	80	211	0.022	0.107	0.058	0	0	0	0	0	1	-360	360	-31.1318	-5.5733	31.3372	0.4533	0.0000	0.0000	0.0000	0.0000;
	81	194	0.0035	0.033	0.53	0	0	0	0	0	1	-360	360	-83.2151	-29.0570	83.4320	-28.2860	0.0000	0.0000	0.0000	0.0000;
	81	195	0.0035	0.033	0.53	0	0	0	0	0	1	-360	360	0.5350	-12.5941	-0.5259	-46.2477	0.0000	0.0000	0.0000	0.0000;
	85	86	0.008	0.064	0.128	0	0	0	0	0	1	-360	360	-73.5715	-1.2156	73.9944	-8.6215	0.0000	0.0000	0.0000	0.0000;
	86	87	0.012	0.093	0.183	0	0	0	0	0	1	-360	360	-91.9187	9.6263	92.9392	-20.6282	0.0000	0.0000	0.0000	0.0000;
	86	323	0.006	0.048	0.092	0	0	0	0	0	1	-360	360	-14.8588	17.3835	14.9000	-26.5000	0.0000	0.0000	0.0000	0.0000;
	89	91	0.047	0.119	0.014	0	0	0	0	0	1	-360	360	-35.1079	-0.6739	35.6436	0.4920	0.0000	0.0000	0.0000	0.0000;
	90	92	0.032	0.174	0.024	0	0	0	0	0	1	-360	360	-61.8683	1.4072	63.0021	2.1110	0.0000	0.0000	0.0000	0.0000;
	91	94	0.1	0.253	0.031	0	0	0	0	0	1	-360	360	13.2735	11.8787	-12.9497	-14.3752	0.0000	0.0000	0.0000	0.0000;
	91	97	0.022	0.077	0.039	0	0	0	0	0	1	-360	360	90.7771	1.2255	-89.1505	0.1938	0.0000	0.0000	0.0000	0.0000;
	92	103	0.019	0.144	0.017	0	0	0	0	0	1	-360	360	74.7735	4.9624	-73.8221	0.3675	0.0000	0.0000	0.0000	0.0000;
	92	105	0.017	0.092	0.012	0	0	0	0	0	1	-360	360	131.9356	7.7652	-129.2912	5.2257	0.0000	0.0000	0.0000	0.0000;
	94	97	0.278	0.427	0.043	0	0	0	0	0	1	-360	360	5.0003	-11.2910	-4.7078	7.2281	0.0000	0.0000	0.0000	0.0000;
	97	100	0.022	0.053	0.007	0	0	0	0	0	1	-360	360	36.7217	-5.5728	-36.4404	5.5012	0.0000	0.0000	0.0000	0.0000;
	97	102	0.038	0.092	0.012	0	0	0	0	0	1	-360	360	35.7758	-3.2136	-35.3213	3.0359	0.0000	0.0000	0.0000	0.0000;
	97	103	0.048	0.122	0.015	0	0	0	0	0	1	-360	360	-18.5392	1.3645	18.6947	-2.5926	0.0000	0.0000	0.0000	0.0000;
	98	100	0.024	0.064	0.007	0	0	0	0	0	1	-360	360	-1.3421	4.5793	1.3480	-5.3113	0.0000	0.0000	0.0000	0.0000;
	98	102	0.034	0.121	0.015	0	0	0	0	0	1	-360	360	10.4994	3.2394	-10.4592	-4.6905	0.0000	0.0000	0.0000	0.0000;
	99	107	0.053	0.135	0.017	0	0	0	0	0	1	-360	360	-41.3854	6.0697	42.2921	-5.5345	0.0000	0.0000	0.0000	0.0000;
	99	108	0.002	0.004	0.002	0	0	0	0	0	1	-360	360	-27.3167	-4.2278	27.3315	4.0514	0.0000	0.0000	0.0000	0.0000;
	99	109	0.045	0.354	0.044	0	0	0	0	0	1	-360	360	21.8328	-0.9030	-21.6236	-1.9291	0.0000	0.0000	0.0000	0.0000;
	99	110	0.05	0.174	0.022	0	0	0	0	0	1	-360	360	36.9408	-2.2482	-36.2773	2.3240	0.0000	0.0000	0.0000	0.0000;
	100	102	0.016	0.038	0.004	0	0	0	0	0	1	-360	360	35.0924	-0.1899	-34.9074	0.2051	0.0000	0.0000	0.0000	0.0000;
	102	104	0.043	0.064	0.027	0	0	0	0	0	1	-360	360	35.6710	-17.5931	-35.0455	15.6897	0.0000	0.0000	0.0000	0.0000;
	103	105	0.019	0.062	0.008	0	0	0	0	0	1	-360	360	23.1274	2.2251	-23.0329	-2.7827	0.0000	0.0000	0.0000	0.0000;
	104	108	0.076	0.13	0.044	0	0	0	0	0	1	-360	360	24.0339	-10.2473	-23.5680	6.4770	0.0000	0.0000	0.0000	0.0000;
	104	322	0.044	0.124	0.015	0	0	0	0	0	1	-360	360	2.4116	-5.4423	-2.4000	3.9000	0.0000	0.0000	0.0000	0.0000;
	105	107	0.012	0.088	0.011	0	0	0	0	0	1	-360	360	60.0805	3.3814	-59.6765	-1.5928	0.0000	0.0000	0.0000	0.0000;
	105	110	0.157	0.4	0.047	0	0	0	0	0	1	-360	360	42.6436	-5.8244	-39.9764	7.7375	0.0000	0.0000	0.0000	0.0000;
	108	324	0.074	0.208	0.026	0	0	0	0	0	1	-360	360	25.1554	-2.5622	-24.7000	1.2000	0.0000	0.0000	0.0000	0.0000;
	109	110	0.07	0.184	0.021	0	0	0	0	0	1	-360	360	-4.9801	2.3270	5.0054	-4.3677	0.0000	0.0000	0.0000	0.0000;
	109	113	0.1	0.274	0.031	0	0	0	0	0	1	-360	360	-9.1582	3.1347	9.2635	-5.9547	0.0000	0.0000	0.0000	0.0000;
	109	114	0.109	0.393	0.036	0	0	0	0	0	1	-360	360	5.0619	-3.5326	-5.0310	0.0174	0.0000	0.0000	0.0000	0.0000;
	110	112	0.142	0.404	0.05	0	0	0	0	0	1	-360	360	8.2484	-5.6939	-8.1374	0.9969	0.0000	0.0000	0.0000	0.0000;
	112	114	0.017	0.042	0.006	0	0	0	0	0	1	-360	360	-11.4626	-0.9969	11.4849	0.4481	0.0000	0.0000	0.0000	0.0000;
	115	122	0.0036	0.0199	0.004	0	0	0	0	0	1	-360	360	66.3054	-73.9372	-65.9360	75.5905	0.0000	0.0000	0.0000	0.0000;
	116	120	0.002	0.1049	0.001	0	0	0	0	0	1	-360	360	-67.6341	63.0485	67.7935	-54.7901	0.0000	0.0000	0.0000	0.0000;
	117	118	0.0001	0.0018	0.017	0	0	0	0	0	1	-360	360	-524.1324	293.0103	524.5291	-287.4101	0.0000	0.0000	0.0000	0.0000;
	118	119	0	0.0271	0	0	0	0	0	0	1	-360	360	-611.8946	-337.6035	611.8946	484.5328	0.0000	0.0000	0.0000	0.0000;
	118	1201	0	0.6163	0	0	0	0	0	0	1	-360	360	26.9637	-9.4171	-26.9637	14.9980	0.0000	0.0000	0.0000	0.0000;
	1201	120	0	-0.3697	0	0	0	0	0	0	1	-360	360	26.9637	-14.9980	-26.9637	11.6502	0.0000	0.0000	0.0000	0.0000;
	118	121	0.0022	0.2915	0	0	0	0	0	0	1	-360	360	46.3018	-15.5693	-46.2435	23.2913	0.0000	0.0000	0.0000	0.0000;
	119	120	0	0.0339	0	0	0	0	0	0	1	-360	360	717.8298	347.9868	-717.8298	-155.9870	0.0000	0.0000	0.0000	0.0000;
	119	121	0	0.0582	0	0	0	0	0	0	1	-360	360	555.0618	184.4419	-555.0618	-7.2352	0.0000	0.0000	0.0000	0.0000;
	122	123	0.0808	0.2344	0.029	0	0	0	0	0	1	-360	360	17.4537	-17.3313	-16.9957	15.7356	0.0000	0.0000	0.0000	0.0000;
	122	125	0.0965	0.3669	0.054	0	0	0	0	0	1	-360	360	15.8191	-16.8872	-15.3749	13.0477	0.0000	0.0000	0.0000	0.0000;
	123	124	0.036	0.1076	0.117	0	0	0	0	0	1	-360	360	-69.0121	3.9240	70.7059	-11.1528	0.0000	0.0000	0.0000	0.0000;
	123	125	0.0476	0.1414	0.149	0	0	0	0	0	1	-360	360	8.0078	-21.0596	-7.8960	5.7655	0.0000	0.0000	0.0000	0.0000;
	125	126	0.0006	0.0197	0	0	0	0	0	0	1	-360	360	-398.3728	98.3420	399.3222	-67.1701	0.0000	0.0000	0.0000	0.0000;
	126	127	0.0059	0.0405	0.25	0	0	0	0	0	1	-360	360	-28.5957	8.3087	28.6680	-33.5483	0.0000	0.0000	0.0000	0.0000;
	126	129	0.0115	0.1106	0.185	0	0	0	0	0	1	-360	360	-97.8396	7.8561	98.9357	-16.4456	0.0000	0.0000	0.0000	0.0000;
	126	132	0.0198	0.1688	0.321	0	0	0	0	0	1	-360	360	-136.0736	13.3417	139.7832	-15.0898	0.0000	0.0000	0.0000	0.0000;
	126	157	0.005	0.05	0.33	0	0	0	0	0	1	-360	360	-63.9521	19.0148	64.2124	-50.1399	0.0000	0.0000	0.0000	0.0000;
	126	158	0.0077	0.0538	0.335	0	0	0	0	0	1	-360	360	-74.3708	-2.8898	74.7974	-28.8030	0.0000	0.0000	0.0000	0.0000;
	126	169	0.0165	0.1157	0.171	0	0	0	0	0	1	-360	360	-56.3904	16.4385	56.9986	-29.5951	0.0000	0.0000	0.0000	0.0000;
	127	128	0.0059	0.0577	0.095	0	0	0	0	0	1	-360	360	-151.1101	12.2924	152.4445	-8.9840	0.0000	0.0000	0.0000	0.0000;
	127	134	0.0049	0.0336	0.208	0	0	0	0	0	1	-360	360	-107.9053	-27.8904	108.4775	10.2990	0.0000	0.0000	0.0000	0.0000;
	127	168	0.0059	0.0577	0.095	0	0	0	0	0	1	-360	360	-150.4525	12.1463	151.7752	-8.9528	0.0000	0.0000	0.0000	0.0000;
	128	130	0.0078	0.0773	0.126	0	0	0	0	0	1	-360	360	-227.7661	9.3031	231.7203	16.6642	0.0000	0.0000	0.0000	0.0000;
	128	133	0.0026	0.0193	0.03	0	0	0	0	0	1	-360	360	75.3216	-0.3191	-75.1781	-1.6943	0.0000	0.0000	0.0000	0.0000;
	129	130	0.0076	0.0752	0.122	0	0	0	0	0	1	-360	360	-223.3058	9.4313	226.9964	14.2644	0.0000	0.0000	0.0000	0.0000;
	129	133	0.0021	0.0186	0.03	0	0	0	0	0	1	-360	360	124.3701	7.0143	-124.0538	-7.2972	0.0000	0.0000	0.0000	0.0000;
...
];

%%-----  OPF Data  -----%%
%% generator cost data
%	1	startup	shutdown	n	x1	y1	...	xn	yn
%	2	startup	shutdown	n	c(n-1)	...	c0
mpc.gencost = [
	2	0	0	3	0.01	40	0;
	2	0	0	3	0.01	40	0;
	2	0	0	3	0.01	40	0;
	2	0	0	3	0.01	40	0;
	2	0	0	3	0.01	40	0;
	2	0	0	3	0.0266666667	20	0;
	2	0	0	3	0.064516129	20	0;
	2	0	0	3	0.0344827586	20	0;
	2	0	0	3	0.147058824	20	0;
	2	0	0	3	0.0854700855	20	0;
	2	0	0	3	0.00518134715	20	0;
	2	0	0	3	0.0416666667	20	0;
	2	0	0	3	0.01	40	0;
	2	0	0	3	0.01	40	0;
	2	0	0	3	0.0355871886	20	0;
	2	0	0	3	0.0143678161	20	0;
	2	0	0	3	0.119047619	20	0;
	2	0	0	3	0.0460829493	20	0;
	2	0	0	3	0.0970873786	20	0;
	2	0	0	3	0.0268817204	20	0;
	2	0	0	3	0.0462962963	20	0;
	2	0	0	3	0.01	40	0;
	2	0	0	3	0.0487804878	20	0;
	2	0	0	3	0.01	40	0;
	2	0	0	3	0.0438596491	20	0;
	2	0	0	3	0.119047619	20	0;
	2	0	0	3	0.05	20	0;
	2	0	0	3	0.00833333333	20	0;
	2	0	0	3	0.00833333333	20	0;
	2	0	0	3	0.0210526316	20	0;
	2	0	0	3	0.00506842372	20	0;
	2	0	0	3	0.0235849057	20	0;
	2	0	0	3	0.0367647059	20	0;
	2	0	0	3	0.1	20	0;
	2	0	0	3	0.0222222222	20	0;
	2	0	0	3	0.04	20	0;
	2	0	0	3	0.0330033003	20	0;
	2	0	0	3	0.0289855072	20	0;
	2	0	0	3	0.0333333333	20	0;
	2	0	0	3	0.0166666667	20	0;
	2	0	0	3	0.04	20	0;
	2	0	0	3	0.0181818182	20	0;
	2	0	0	3	0.0173783084	20	0;
	2	0	0	3	0.0588235294	20	0;
	2	0	0	3	0.119047619	20	0;
	2	0	0	3	0.0214132762	20	0;
	2	0	0	3	0.0160513644	20	0;
	2	0	0	3	0.00826446281	20	0;
	2	0	0	3	0.0427350427	20	0;
	2	0	0	3	0.0268817204	20	0;
	2	0	0	3	0.0303030303	20	0;
	2	0	0	3	0.0540540541	20	0;
	2	0	0	3	0.0243902439	20	0;
	2	0	0	3	0.02	20	0;
	2	0	0	3	0.27027027	20	0;
	2	0	0	3	0.01	40	0;
	2	0	0	3	0.222222222	20	0;
	2	0	0	3	0.0606060606	20	0;
	2	0	0	3	0.025	20	0;
	2	0	0	3	0.025	20	0;
	2	0	0	3	0.0862068966	20	0;
	2	0	0	3	0.00773993808	20	0;
	2	0	0	3	0.0142857143	20	0;
	2	0	0	3	0.0180831826	20	0;
	2	0	0	3	0.01	40	0;
	2	0	0	3	0.01	40	0;
	2	0	0	3	0.01	40	0;
	2	0	0	3	0.2	20	0;
	2	0	0	3	1.25	20	0;
];
